CRYSTAL
PRIMVEC
 9.58988416415992 0.00000000000000 0.00000000000000
 -4.79494072210742 8.30507754154168 0.00000000000000
 0.00001109233118 -0.00000551083620 25.88885672952439
PRIMCOORD
 30 1
 41     0.00000093386740     0.00001718972245     0.02746994442315
 41    -0.00000220985407     0.00000443239968    12.97190915229419
 41     4.79493507262676     2.76834823609723     8.65710229707595
 41     4.79495766957409     2.76837509758495    21.60152386511190
 41     0.00000424677236     5.53673444478897    17.28670385469860
 41    -0.00000133923748     5.53671655594989     4.34228928653199
  3    -0.00001371534927    -0.00001142012697     5.63989582199283
  3     0.00000872706730     0.00001638134258    18.58418476318931
  3     4.79492908573779     2.76838609063420    14.26940437274256
  3     4.79494205069440     2.76834706778626     1.32506344367729
  3     0.00000884271197     5.53672157416480    22.89895738803042
  3     0.00000636169667     5.53670392334735     9.95470896212166
  8    -1.24954097419458     2.65899652138118     2.66594392255445
  8     3.11693830496434     5.89343363379728     2.66592864626982
  8    -1.86739511578124     8.05770213384050     2.66592926907320
  8     1.86740544271694     8.05773211935764    15.61033246386927
  8     1.24954204826159     2.65901782058960    15.61032781195576
  8    -3.11695134533814     5.89345667145324    15.61034835468204
  8     3.54539442118524     5.42735073001012    11.29554662814462
  8     3.11695118683244     0.35670507792181    11.29554042273329
  8     7.72248095596094     2.52099734461831    11.29553131186171
  8     1.86740972635897     2.52099146760200    24.23996250818379
  8     6.04449754922446     5.42737693906273    24.23996343823440
  8     6.47296124973539     0.35672487451536    24.23995912505206
  8    -1.24952009010585     8.19574087631153    19.92514222629401
  8    -1.67798412863751     3.12509899442953    19.92514304915867
  8     2.92755129419715     5.28935579323401    19.92513276093581
  8    -2.92755764506229     5.28933282918854     6.98072332264980
  8     1.24953857048450     8.19570410189605     6.98074307687744
  8     1.67798710896025     3.12506276682770     6.98073945455164
